#======================================================================

# CRYSTAL DATA

#----------------------------------------------------------------------

data_VESTA_phase_1


_pd_phase_name                         'C3 H8 Co N2 O6'
_cell_length_a                         7.9435(2)
_cell_length_b                         13.8339(4)
_cell_length_c                         7.3016(2)
_cell_angle_alpha                      90
_cell_angle_beta                       90
_cell_angle_gamma                      90
_symmetry_space_group_name_H-M         'P 21 21 21'
_symmetry_Int_Tables_number            19

loop_
_symmetry_equiv_pos_as_xyz
   'x, y, z'
   '-x+1/2, -y, z+1/2'
   '-x, y+1/2, -z+1/2'
   'x+1/2, -y+1/2, -z'

loop_
   _atom_site_label
   _atom_site_occupancy
   _atom_site_fract_x
   _atom_site_fract_y
   _atom_site_fract_z
   _atom_site_adp_type
   _atom_site_U_iso_or_equiv
   _atom_site_type_symbol
   Co1        1.0     0.21919(3)    0.335406(18)  0.75969(3)   Uiso  0.009877 Co
   O1         1.0     0.10451(18)   0.22848(10)   0.6084(2)    Uiso  0.016933 O
   O2         1.0    -0.07429(17)   0.16384(10)   0.41139(17)  Uiso  0.015933 O
   O3         1.0     0.30674(17)   0.21147(10)   0.90291(18)  Uiso  0.013667 O
   O4         1.0     0.50341(17)   0.14450(9)    1.07831(18)  Uiso  0.015400 O
   O5         1.0     0.1117(2)     0.45314(10)   0.61960(18)  Uiso  0.015100 O
   O6         1.0     0.13201(17)   0.57273(10)   0.41822(18)  Uiso  0.015233 O
   C1         1.0    -0.0156(2)     0.23405(16)   0.4987(4)    Uiso  0.014233 C
   H1         1.0    -0.065800      0.295600      0.480200     Uiso  0.017000 H
   C2         1.0     0.4428(4)     0.21412(16)   0.9910(4)    Uiso  0.014567 C
   H2         1.0     0.503800      0.273200      0.991200     Uiso  0.017000 H
   C3         1.0     0.1941(4)     0.50501(13)   0.5094(2)    Uiso  0.014767 C
   H3         1.0     0.310700      0.491800      0.494700     Uiso  0.018000 H
   N1         1.0     0.1821(2)     0.03644(12)   0.7343(2)    Uiso  0.017133 N
   H11        1.0     0.072700      0.026200      0.765900     Uiso  0.026000 H
   H12        1.0     0.192400      0.034400      0.610300     Uiso  0.026000 H
   H13        1.0     0.215400      0.095400      0.775900     Uiso  0.026000 H
   N2         1.0     0.2874(2)    -0.03841(13)   0.8159(2)    Uiso  0.019500 N
   H21        1.0     0.3944(10)   -0.0305(10)    0.778(3)     Uiso  0.029000 H
   H22        1.0     0.2471(18)   -0.0964(7)     0.769(2)     Uiso  0.029000 H

loop_
   _atom_site_aniso_label
   _atom_site_aniso_U_11
   _atom_site_aniso_U_22
   _atom_site_aniso_U_33
   _atom_site_aniso_U_12
   _atom_site_aniso_U_13
   _atom_site_aniso_U_23
   Co1	 0.01092  0.00815  0.01056 -0.00002  0.00008 -0.00005
   O1	 0.01910  0.01360  0.01810  0.00100 -0.00840 -0.00160
   O2	 0.01710  0.01240  0.01830 -0.00050 -0.00520 -0.00240
   O3	 0.01500  0.01180  0.01420 -0.00030 -0.00230  0.00070
   O4	 0.01570  0.01250  0.01800 -0.00040 -0.00520  0.00380
   O5	 0.01700  0.01250  0.01580  0.00130  0.00400  0.00370
   O6	 0.01480  0.01250  0.01840  0.00010  0.00080  0.00530
   C1	 0.01400  0.01270  0.01600  0.00170 -0.00060  0.00050
   H1	 0.00000  0.00000  0.00000  0.00000  0.00000  0.00000
   C2	 0.01630  0.01280  0.01460 -0.00150 -0.00050 -0.00070
   H2	 0.00000  0.00000  0.00000  0.00000  0.00000  0.00000
   C3	 0.01610  0.01240  0.01580  0.00180  0.00160  0.00030
   H3	 0.00000  0.00000  0.00000  0.00000  0.00000  0.00000
   N1	 0.01610  0.01410  0.02120  0.00010 -0.00110 -0.00010
   H11	 0.00000  0.00000  0.00000  0.00000  0.00000  0.00000
   H12	 0.00000  0.00000  0.00000  0.00000  0.00000  0.00000
   H13	 0.00000  0.00000  0.00000  0.00000  0.00000  0.00000
   N2	 0.01840  0.01420  0.02590  0.00370 -0.00150  0.00190
   H21	 0.00000  0.00000  0.00000  0.00000  0.00000  0.00000
   H22	 0.00000  0.00000  0.00000  0.00000  0.00000  0.00000
