#======================================================================

# CRYSTAL DATA

#----------------------------------------------------------------------

data_VESTA_phase_1


_pd_phase_name                         'C3 H8 Mg N2 O6'
_cell_length_a                         7.8928(2)
_cell_length_b                         13.7693(4)
_cell_length_c                         7.4007(2)
_cell_angle_alpha                      90
_cell_angle_beta                       90
_cell_angle_gamma                      90
_symmetry_space_group_name_H-M         'P 21 21 21'
_symmetry_Int_Tables_number            19

loop_
_symmetry_equiv_pos_as_xyz
   'x, y, z'
   '-x+1/2, -y, z+1/2'
   '-x, y+1/2, -z+1/2'
   'x+1/2, -y+1/2, -z'

loop_
   _atom_site_label
   _atom_site_occupancy
   _atom_site_fract_x
   _atom_site_fract_y
   _atom_site_fract_z
   _atom_site_adp_type
   _atom_site_U_iso_or_equiv
   _atom_site_type_symbol
   Mg1        1.0     0.22279(6)    0.16466(4)    0.25959(7)   Uiso  0.013767 Mg
   O1         1.0     0.10437(16)   0.26952(9)    0.10876(17)  Uiso  0.025333 O
   O2         1.0    -0.07053(16)   0.33374(9)   -0.09137(16)  Uiso  0.023133 O
   O3         1.0     0.31092(14)   0.28599(8)    0.40248(16)  Uiso  0.019900 O
   O4         1.0     0.50720(16)   0.35290(8)    0.57870(16)  Uiso  0.024233 O
   O5         1.0     0.11838(14)   0.04813(8)    0.11935(17)  Uiso  0.021100 O
   O6         1.0     0.13429(16)  -0.07149(8)   -0.08074(17)  Uiso  0.022900 O
   C1         1.0    -0.0104(2)     0.26463(11)  -0.0044(2)    Uiso  0.022200 C
   H1         1.0    -0.057000      0.202200     -0.027100     Uiso  0.027000 H
   C2         1.0     0.4452(2)     0.28458(12)   0.4938(2)    Uiso  0.022967 C
   H2         1.0     0.505000      0.224700      0.497800     Uiso  0.028000 H
   C3         1.0     0.1940(2)    -0.00213(11)   0.0037(2)    Uiso  0.022000 C
   H3         1.0     0.308300      0.014700     -0.021600     Uiso  0.026000 H
   N1         1.0     0.18001(18)   0.46340(11)   0.2407(2)    Uiso  0.027467 N
   H11        1.0     0.070400      0.473000      0.274100     Uiso  0.041000 H
   H12        1.0     0.213900      0.403200      0.276300     Uiso  0.041000 H
   H13        1.0     0.188900      0.468300      0.118400     Uiso  0.041000 H
   N2         1.0     0.2859(2)     0.53572(14)   0.3248(4)    Uiso  0.039967 N
   H21        1.0     0.3943(11)    0.5270(13)    0.279(3)     Uiso  0.060000 H
   H22        1.0     0.249(2)      0.5955(7)     0.278(3)     Uiso  0.060000 H

loop_
   _atom_site_aniso_label
   _atom_site_aniso_U_11
   _atom_site_aniso_U_22
   _atom_site_aniso_U_33
   _atom_site_aniso_U_12
   _atom_site_aniso_U_13
   _atom_site_aniso_U_23
   Mg1	 0.01400  0.01310  0.01420  0.00023 -0.00020  0.00000
   O1	 0.02820  0.02190  0.02590  0.00250 -0.01170  0.00100
   O2	 0.02300  0.02100  0.02540  0.00070 -0.00820  0.00320
   O3	 0.01850  0.01890  0.02230 -0.00210 -0.00630 -0.00160
   O4	 0.02160  0.02240  0.02870  0.00030 -0.00870 -0.00700
   O5	 0.01990  0.02050  0.02290 -0.00090  0.00260 -0.00730
   O6	 0.02120  0.02070  0.02680 -0.00110  0.00340 -0.00950
   C1	 0.02230  0.01860  0.02570 -0.00010 -0.00760  0.00280
   H1	 0.00000  0.00000  0.00000  0.00000  0.00000  0.00000
   C2	 0.02120  0.01930  0.02840  0.00160 -0.00640 -0.00400
   H2	 0.00000  0.00000  0.00000  0.00000  0.00000  0.00000
   C3	 0.01620  0.02310  0.02670 -0.00280  0.00350 -0.00750
   H3	 0.00000  0.00000  0.00000  0.00000  0.00000  0.00000
   N1	 0.02220  0.02520  0.03500 -0.00040  0.00170 -0.00160
   H11	 0.00000  0.00000  0.00000  0.00000  0.00000  0.00000
   H12	 0.00000  0.00000  0.00000  0.00000  0.00000  0.00000
   H13	 0.00000  0.00000  0.00000  0.00000  0.00000  0.00000
   N2	 0.03320  0.03930  0.04740 -0.01140 -0.00140 -0.00670
   H21	 0.00000  0.00000  0.00000  0.00000  0.00000  0.00000
   H22	 0.00000  0.00000  0.00000  0.00000  0.00000  0.00000
